ethanol
 OpenBabel06222615573D

  9  8  0  0  0  0  0  0  0  0999 V2000
    1.0949   -0.0399    0.0248 C   0  0  0  0  0  0  0  0  0  0  0  0
    2.6094   -0.0447    0.0221 C   0  0  0  0  0  0  0  0  0  0  0  0
    3.0907   -0.6370   -1.1755 O   0  0  0  0  0  0  0  0  0  0  0  0
    0.7080    0.4285    0.9341 H   0  0  0  0  0  0  0  0  0  0  0  0
    0.7045   -1.0610   -0.0389 H   0  0  0  0  0  0  0  0  0  0  0  0
    0.7098    0.5030   -0.8446 H   0  0  0  0  0  0  0  0  0  0  0  0
    3.0017   -0.6075    0.8746 H   0  0  0  0  0  0  0  0  0  0  0  0
    2.9956    0.9773    0.0764 H   0  0  0  0  0  0  0  0  0  0  0  0
    2.7516   -1.5478   -1.2090 H   0  0  0  0  0  0  0  0  0  0  0  0
  1  2  1  0  0  0  0
  1  4  1  0  0  0  0
  1  5  1  0  0  0  0
  1  6  1  0  0  0  0
  2  3  1  0  0  0  0
  2  7  1  0  0  0  0
  2  8  1  0  0  0  0
  3  9  1  0  0  0  0
M  END
>  <pIC50>
5.1

$$$$
acetic_acid
 OpenBabel06222615573D

  8  7  0  0  0  0  0  0  0  0999 V2000
    1.0958   -0.0345   -0.0487 C   0  0  0  0  0  0  0  0  0  0  0  0
    2.5913    0.0020   -0.1356 C   0  0  0  0  0  0  0  0  0  0  0  0
    3.2157    0.4078   -1.1022 O   0  0  0  0  0  0  0  0  0  0  0  0
    3.1917   -0.4667    0.9808 O   0  0  0  0  0  0  0  0  0  0  0  0
    0.6694    0.3555   -0.9774 H   0  0  0  0  0  0  0  0  0  0  0  0
    0.7570    0.5928    0.7796 H   0  0  0  0  0  0  0  0  0  0  0  0
    0.7570   -1.0650    0.0835 H   0  0  0  0  0  0  0  0  0  0  0  0
    2.5643   -0.7560    1.6698 H   0  0  0  0  0  0  0  0  0  0  0  0
  1  2  1  0  0  0  0
  1  5  1  0  0  0  0
  1  6  1  0  0  0  0
  1  7  1  0  0  0  0
  2  3  2  0  0  0  0
  2  4  1  0  0  0  0
  4  8  1  0  0  0  0
M  END
>  <pIC50>
4.8

$$$$
