ethanol
 OpenBabel06222615573D

  9  8  0  0  0  0  0  0  0  0999 V2000
    0.9331   -0.0233   -0.0633 C   0  0  0  0  0  0  0  0  0  0  0  0
    2.4477   -0.0265   -0.0589 C   0  0  0  0  0  0  0  0  0  0  0  0
    2.9290   -1.2854    0.3888 O   0  0  0  0  0  0  0  0  0  0  0  0
    0.5463    0.9346   -0.4218 H   0  0  0  0  0  0  0  0  0  0  0  0
    0.5428   -0.2064    0.9432 H   0  0  0  0  0  0  0  0  0  0  0  0
    0.5480   -0.8231   -0.7045 H   0  0  0  0  0  0  0  0  0  0  0  0
    2.8400    0.7540    0.6001 H   0  0  0  0  0  0  0  0  0  0  0  0
    2.8339    0.1472   -1.0675 H   0  0  0  0  0  0  0  0  0  0  0  0
    2.5898   -1.4255    1.2894 H   0  0  0  0  0  0  0  0  0  0  0  0
  1  2  1  0  0  0  0
  1  4  1  0  0  0  0
  1  5  1  0  0  0  0
  1  6  1  0  0  0  0
  2  3  1  0  0  0  0
  2  7  1  0  0  0  0
  2  8  1  0  0  0  0
  3  9  1  0  0  0  0
M  END
>  <pIC50>
5.1

$$$$
acetic_acid
 OpenBabel06222615573D

  8  7  0  0  0  0  0  0  0  0999 V2000
    1.0772    0.0994   -0.1099 C   0  0  0  0  0  0  0  0  0  0  0  0
    2.5727    0.0411   -0.0358 C   0  0  0  0  0  0  0  0  0  0  0  0
    3.1972   -0.6067    0.7885 O   0  0  0  0  0  0  0  0  0  0  0  0
    3.1733    0.7892   -0.9877 O   0  0  0  0  0  0  0  0  0  0  0  0
    0.6508   -0.5231    0.6821 H   0  0  0  0  0  0  0  0  0  0  0  0
    0.7385   -0.2856   -1.0749 H   0  0  0  0  0  0  0  0  0  0  0  0
    0.7385    1.1280    0.0361 H   0  0  0  0  0  0  0  0  0  0  0  0
    2.5460    1.2511   -1.5754 H   0  0  0  0  0  0  0  0  0  0  0  0
  1  2  1  0  0  0  0
  1  5  1  0  0  0  0
  1  6  1  0  0  0  0
  1  7  1  0  0  0  0
  2  3  2  0  0  0  0
  2  4  1  0  0  0  0
  4  8  1  0  0  0  0
M  END
>  <pIC50>
4.8

$$$$
