structure 1 of 1
 crest06222615573D Energy =      -11.39433936

  9  8  0  0  0  0  0  0  0  0999 V2000
   -1.2749    0.2515    0.0158 C   0  0  0  0  0  0  0  0  0  0  0  0
    0.0147   -0.5613   -0.0328 C   0  0  0  0  0  0  0  0  0  0  0  0
    1.1685    0.2416    0.0563 O   0  0  0  0  0  0  0  0  0  0  0  0
   -1.3407    0.9166   -0.8443 H   0  0  0  0  0  0  0  0  0  0  0  0
   -1.3032    0.8520    0.9217 H   0  0  0  0  0  0  0  0  0  0  0  0
   -2.1342   -0.4131    0.0067 H   0  0  0  0  0  0  0  0  0  0  0  0
    0.0401   -1.1632   -0.9538 H   0  0  0  0  0  0  0  0  0  0  0  0
    0.0690   -1.2389    0.8223 H   0  0  0  0  0  0  0  0  0  0  0  0
    1.1384    0.9029   -0.6443 H   0  0  0  0  0  0  0  0  0  0  0  0
  1  2  1  0  0  0  0
  1  4  1  0  0  0  0
  1  5  1  0  0  0  0
  1  6  1  0  0  0  0
  2  3  1  0  0  0  0
  2  7  1  0  0  0  0
  2  8  1  0  0  0  0
  3  9  1  0  0  0  0
M  END
$$$$
