ethanol
 OpenBabel06222615573D

  9  8  0  0  0  0  0  0  0  0999 V2000
    0.9569   -0.0541   -0.0697 C   0  0  0  0  0  0  0  0  0  0  0  0
    2.4715   -0.0519   -0.0747 C   0  0  0  0  0  0  0  0  0  0  0  0
    2.9528    1.0857   -0.7755 O   0  0  0  0  0  0  0  0  0  0  0  0
    0.5701   -0.9161    0.4810 H   0  0  0  0  0  0  0  0  0  0  0  0
    0.5666   -0.0853   -1.0923 H   0  0  0  0  0  0  0  0  0  0  0  0
    0.5718    0.8619    0.3902 H   0  0  0  0  0  0  0  0  0  0  0  0
    2.8638   -0.9529   -0.5561 H   0  0  0  0  0  0  0  0  0  0  0  0
    2.8577   -0.0112    0.9480 H   0  0  0  0  0  0  0  0  0  0  0  0
    2.6136    1.0346   -1.6854 H   0  0  0  0  0  0  0  0  0  0  0  0
  1  2  1  0  0  0  0
  1  4  1  0  0  0  0
  1  5  1  0  0  0  0
  1  6  1  0  0  0  0
  2  3  1  0  0  0  0
  2  7  1  0  0  0  0
  2  8  1  0  0  0  0
  3  9  1  0  0  0  0
M  END
>  <pIC50>
5.1

$$$$
acetic_acid
 OpenBabel06222615573D

  8  7  0  0  0  0  0  0  0  0999 V2000
    1.1006   -0.0732   -0.0218 C   0  0  0  0  0  0  0  0  0  0  0  0
    2.5961   -0.1061    0.0664 C   0  0  0  0  0  0  0  0  0  0  0  0
    3.2205   -0.4727    1.0486 O   0  0  0  0  0  0  0  0  0  0  0  0
    3.1965    0.3172   -1.0679 O   0  0  0  0  0  0  0  0  0  0  0  0
    0.6741   -0.4254    0.9219 H   0  0  0  0  0  0  0  0  0  0  0  0
    0.7618   -0.7333   -0.8242 H   0  0  0  0  0  0  0  0  0  0  0  0
    0.7618    0.9512   -0.1955 H   0  0  0  0  0  0  0  0  0  0  0  0
    2.5692    0.5786   -1.7681 H   0  0  0  0  0  0  0  0  0  0  0  0
  1  2  1  0  0  0  0
  1  5  1  0  0  0  0
  1  6  1  0  0  0  0
  1  7  1  0  0  0  0
  2  3  2  0  0  0  0
  2  4  1  0  0  0  0
  4  8  1  0  0  0  0
M  END
>  <pIC50>
4.8

$$$$
