Butane 3D core
  Burette          3D

  4  3  0  0  0  0            999 V2000
    0.0000    0.0000    0.0000 C   0  0  0  0  0  0  0  0  0  0  0  0
    1.5300    0.0000    0.0000 C   0  0  0  0  0  0  0  0  0  0  0  0
    2.1100    1.2300    0.7200 C   0  0  0  0  0  0  0  0  0  0  0  0
    3.6400    1.2300    0.7200 C   0  0  0  0  0  0  0  0  0  0  0  0
  1  2  1  0
  2  3  1  0
  3  4  1  0
M  END
$$$$
