Water
  Burette

  3  2  0  0  0  0            999 V2000
    0.0000    0.0000    0.0000 O   0  0  0  0  0  0  0  0  0  0  0  0
    0.9572    0.0000    0.0000 H   0  0  0  0  0  0  0  0  0  0  0  0
   -0.2390    0.9270    0.0000 H   0  0  0  0  0  0  0  0  0  0  0  0
  1  2  1  0  0  0  0
  1  3  1  0  0  0  0
M  END
$$$$
Ketcher sketch

  6  6  0  0  0  0  0  0  0  0999 V2000
    5.1809   -4.2751    0.0000 C   0  0  0  0  0  0  0  0  0  0  0  0
    6.9112   -4.2746    0.0000 C   0  0  0  0  0  0  0  0  0  0  0  0
    6.0477   -3.7750    0.0000 C   0  0  0  0  0  0  0  0  0  0  0  0
    6.9112   -5.2755    0.0000 C   0  0  0  0  0  0  0  0  0  0  0  0
    5.1809   -5.2800    0.0000 C   0  0  0  0  0  0  0  0  0  0  0  0
    6.0499   -5.7750    0.0000 C   0  0  0  0  0  0  0  0  0  0  0  0
  3  1  2  0     0  0
  1  5  1  0     0  0
  5  6  2  0     0  0
  6  4  1  0     0  0
  4  2  2  0     0  0
  2  3  1  0     0  0
M  END
$$$$
