NAD 2D
     RDKit          2D

 44 48  0  0  0  0  0  0  0  0999 V2000
   -6.0261   -4.4275    0.0000 C   0  0  0  0  0  0  0  0  0  0  0  0
   -7.5157   -4.6041    0.0000 C   0  0  0  0  0  0  0  0  0  0  0  0
   -8.4133   -3.4023    0.0000 C   0  0  0  0  0  0  0  0  0  0  0  0
   -7.8214   -2.0240    0.0000 C   0  0  0  0  0  0  0  0  0  0  0  0
   -6.3318   -1.8475    0.0000 N   0  0  0  0  0  0  0  0  0  0  0  0
   -5.4342   -3.0493    0.0000 C   0  0  0  0  0  0  0  0  0  0  0  0
   -5.7399   -0.4692    0.0000 C   0  0  0  0  0  0  0  0  0  0  0  0
   -6.5070    0.8198    0.0000 C   0  0  0  0  0  0  0  0  0  0  0  0
   -5.5182    1.9477    0.0000 C   0  0  0  0  0  0  0  0  0  0  0  0
   -4.1399    1.3557    0.0000 C   0  0  0  0  0  0  0  0  0  0  0  0
   -4.2770   -0.1380    0.0000 O   0  0  0  0  0  0  0  0  0  0  0  0
   -2.8509    2.1229    0.0000 C   0  0  0  0  0  0  0  0  0  0  0  0
   -2.8708    3.6227    0.0000 O   0  0  0  0  0  0  0  0  0  0  0  0
   -1.5818    4.3898    0.0000 P   0  0  0  0  0  0  0  0  0  0  0  0
   -2.3489    5.6788    0.0000 O   0  0  0  0  0  0  0  0  0  0  0  0
   -0.8146    3.1008    0.0000 O   0  0  0  0  0  0  0  0  0  0  0  0
   -0.2928    5.1570    0.0000 O   0  0  0  0  0  0  0  0  0  0  0  0
    1.0161    4.4242    0.0000 P   0  0  0  0  0  0  0  0  0  0  0  0
    0.2833    3.1154    0.0000 O   0  0  0  0  0  0  0  0  0  0  0  0
    1.7488    5.7331    0.0000 O   0  0  0  0  0  0  0  0  0  0  0  0
    2.3249    3.6915    0.0000 O   0  0  0  0  0  0  0  0  0  0  0  0
    2.3448    2.1916    0.0000 C   0  0  0  0  0  0  0  0  0  0  0  0
    3.6536    1.4588    0.0000 C   0  0  0  0  0  0  0  0  0  0  0  0
    5.0158    2.0870    0.0000 C   0  0  0  0  0  0  0  0  0  0  0  0
    6.0341    0.9857    0.0000 C   0  0  0  0  0  0  0  0  0  0  0  0
    5.3014   -0.3232    0.0000 C   0  0  0  0  0  0  0  0  0  0  0  0
    3.8302   -0.0307    0.0000 O   0  0  0  0  0  0  0  0  0  0  0  0
    5.9296   -1.6853    0.0000 N   0  0  0  0  0  0  0  0  0  0  0  0
    5.1968   -2.9941    0.0000 C   0  0  0  0  0  0  0  0  0  0  0  0
    6.2152   -4.0955    0.0000 N   0  0  0  0  0  0  0  0  0  0  0  0
    7.5773   -3.4673    0.0000 C   0  0  0  0  0  0  0  0  0  0  0  0
    8.9556   -4.0592    0.0000 C   0  0  0  0  0  0  0  0  0  0  0  0
   10.1573   -3.1616    0.0000 N   0  0  0  0  0  0  0  0  0  0  0  0
    9.9808   -1.6720    0.0000 C   0  0  0  0  0  0  0  0  0  0  0  0
    8.6025   -1.0801    0.0000 N   0  0  0  0  0  0  0  0  0  0  0  0
    7.4008   -1.9777    0.0000 C   0  0  0  0  0  0  0  0  0  0  0  0
    9.1321   -5.5488    0.0000 N   0  0  0  0  0  0  0  0  0  0  0  0
    7.5237    1.1622    0.0000 O   0  0  0  0  0  0  0  0  0  0  0  0
    5.3082    3.5582    0.0000 O   0  0  0  0  0  0  0  0  0  0  0  0
   -5.8494    3.4106    0.0000 O   0  0  0  0  0  0  0  0  0  0  0  0
   -8.0008    0.9568    0.0000 O   0  0  0  0  0  0  0  0  0  0  0  0
   -9.9029   -3.5788    0.0000 C   0  0  0  0  0  0  0  0  0  0  0  0
  -10.4948   -4.9571    0.0000 O   0  0  0  0  0  0  0  0  0  0  0  0
  -10.8006   -2.3771    0.0000 N   0  0  0  0  0  0  0  0  0  0  0  0
  1  2  2  0
  2  3  1  0
  3  4  2  0
  4  5  1  0
  5  6  2  0
  7  5  1  1
  7  8  1  0
  8  9  1  0
  9 10  1  0
 10 11  1  0
 10 12  1  1
 12 13  1  0
 13 14  1  0
 14 15  2  0
 14 16  1  0
 14 17  1  0
 17 18  1  0
 18 19  2  0
 18 20  1  0
 18 21  1  0
 21 22  1  0
 23 22  1  6
 23 24  1  0
 24 25  1  0
 25 26  1  0
 26 27  1  0
 26 28  1  6
 28 29  1  0
 29 30  2  0
 30 31  1  0
 31 32  2  0
 32 33  1  0
 33 34  2  0
 34 35  1  0
 35 36  2  0
 32 37  1  0
 25 38  1  1
 24 39  1  1
  9 40  1  6
  8 41  1  6
  3 42  1  0
 42 43  2  0
 42 44  1  0
  6  1  1  0
 11  7  1  0
 27 23  1  0
 36 28  1  0
 36 31  1  0
M  CHG  2   5   1  16  -1
M  END
$$$$
