


 39 41  0  0  0  0  0  0  0  0999 V2000
   58.0076  -13.7234   11.1779 C   0  0  0  0  0  0  0  0  0  0  0  0
   58.2376  -14.7545   10.0571 C   0  0  0  0  0  0  0  0  0  0  0  0
   58.4995  -15.9374   10.2579 O   0  0  0  0  0  0  0  0  0  0  0  0
   58.1736  -14.2676    8.7687 N   0  0  0  0  0  0  0  0  0  0  0  0
   58.3302  -13.2757    8.6224 H   0  0  0  0  0  0  0  0  0  0  0  0
   58.4176  -15.1602    7.6367 C   0  0  0  0  0  0  0  0  0  0  0  0
   59.5777  -14.7093    6.7291 C   0  0  0  0  0  0  0  0  0  0  0  0
   59.1086  -14.0672    5.4555 C   0  0  0  0  0  0  0  0  0  0  0  0
   58.8521  -12.6959    5.3921 C   0  0  0  0  0  0  0  0  0  0  0  0
   58.4093  -12.1338    4.2002 C   0  0  0  0  0  0  0  0  0  0  0  0
   58.2392  -12.9622    3.1041 C   0  0  0  0  0  0  0  0  0  0  0  0
   58.4789  -14.2906    3.1246 N   0  0  0  0  0  0  0  0  0  0  0  0
   58.9045  -14.8136    4.2972 C   0  0  0  0  0  0  0  0  0  0  0  0
   57.1684  -12.2239   10.4693 S   0  0  0  0  0  0  0  0  0  0  0  0
   57.4202  -10.9703   11.8117 C   0  0  0  0  0  0  0  0  0  0  0  0
   57.3405   -9.4869   11.4078 C   0  0  0  0  0  0  0  0  0  0  0  0
   56.3185   -7.4888   12.4429 C   0  0  0  0  0  0  0  0  0  0  0  0
   55.7924   -7.1407   11.3906 O   0  0  0  0  0  0  0  0  0  0  0  0
   57.0863   -8.6029   12.5582 N   0  0  0  0  0  0  0  0  0  0  0  0
   57.0711   -8.9976   13.4907 H   0  0  0  0  0  0  0  0  0  0  0  0
   56.2424   -6.8294   13.6257 O   0  0  0  0  0  0  0  0  0  0  0  0
   54.8203   -5.4837   15.0983 C   0  0  0  0  0  0  0  0  0  0  0  0
   54.9464   -6.7770   14.2807 C   0  0  0  0  0  0  0  0  0  0  0  0
   54.7165   -8.0288   15.1447 C   0  0  0  0  0  0  0  0  0  0  0  0
   53.8656   -6.7295   13.1797 C   0  0  0  0  0  0  0  0  0  0  0  0
   58.5963   -9.0538   10.6079 C   0  0  0  0  0  0  0  0  0  0  0  0
   58.3487   -8.8738    9.1297 C   0  0  0  0  0  0  0  0  0  0  0  0
   58.9904   -9.6949    8.1900 C   0  0  0  0  0  0  0  0  0  0  0  0
   58.6565   -9.6130    6.8400 C   0  0  0  0  0  0  0  0  0  0  0  0
   57.6869   -8.7063    6.4186 C   0  0  0  0  0  0  0  0  0  0  0  0
   57.0868   -7.8469    7.3376 C   0  0  0  0  0  0  0  0  0  0  0  0
   57.4245   -7.9219    8.6879 C   0  0  0  0  0  0  0  0  0  0  0  0
   59.3496  -13.4068   11.8793 C   0  0  0  0  0  0  0  0  0  0  0  0
   59.7018  -14.2095   13.1179 C   0  0  0  0  0  0  0  0  0  0  0  0
   58.7635  -14.5305   14.1070 C   0  0  0  0  0  0  0  0  0  0  0  0
   59.1879  -15.0190   15.3451 C   0  0  0  0  0  0  0  0  0  0  0  0
   60.5373  -15.2759   15.5733 C   0  0  0  0  0  0  0  0  0  0  0  0
   61.4537  -15.1215   14.5380 C   0  0  0  0  0  0  0  0  0  0  0  0
   61.0367  -14.5989   13.3130 C   0  0  0  0  0  0  0  0  0  0  0  0
 22 23  1  0
 23 24  1  0
 23 25  1  0
 23 21  1  0
 21 17  1  0
 17 18  2  0
 17 19  1  0
 19 20  1  0
 16 26  1  0
 16 15  1  0
 16 19  1  0
 15 14  1  0
  1  2  1  0
  1 33  1  0
  1 14  1  0
 33 34  1  0
 34 35  1  0
 34 39  2  0
 35 36  2  0
 36 37  1  0
 37 38  2  0
 38 39  1  0
  2  3  2  0
  2  4  1  0
  4  6  1  0
  4  5  1  0
  6  7  1  0
  7  8  1  0
  8  9  1  0
  8 13  2  0
  9 10  2  0
 10 11  1  0
 11 12  2  0
 12 13  1  0
 26 27  1  0
 27 28  1  0
 27 32  2  0
 28 29  2  0
 29 30  1  0
 30 31  2  0
 31 32  1  0
M  END
> <minimizedAffinity>
-8.09856

> <CNNscore>
0.3834511638

> <CNNaffinity>
7.2837963104

> <CNN_VS>
2.7929801941

> <CNNaffinity_variance>
0.5454819202
$$$$




 39 41  0  0  0  0  0  0  0  0999 V2000
   57.1982  -12.9383   10.2777 C   0  0  0  0  0  0  0  0  0  0  0  0
   57.8637  -14.1749    9.6453 C   0  0  0  0  0  0  0  0  0  0  0  0
   58.5086  -15.0053   10.2799 O   0  0  0  0  0  0  0  0  0  0  0  0
   57.7338  -14.2954    8.2779 N   0  0  0  0  0  0  0  0  0  0  0  0
   57.5422  -13.4574    7.7386 H   0  0  0  0  0  0  0  0  0  0  0  0
   58.3644  -15.4142    7.5792 C   0  0  0  0  0  0  0  0  0  0  0  0
   59.5742  -15.0058    6.7177 C   0  0  0  0  0  0  0  0  0  0  0  0
   59.1833  -14.2467    5.4826 C   0  0  0  0  0  0  0  0  0  0  0  0
   59.1081  -12.8522    5.4877 C   0  0  0  0  0  0  0  0  0  0  0  0
   58.7335  -12.1798    4.3301 C   0  0  0  0  0  0  0  0  0  0  0  0
   58.4479  -12.9245    3.1985 C   0  0  0  0  0  0  0  0  0  0  0  0
   58.5117  -14.2722    3.1528 N   0  0  0  0  0  0  0  0  0  0  0  0
   58.8743  -14.9027    4.2932 C   0  0  0  0  0  0  0  0  0  0  0  0
   56.9874  -11.6240    8.9803 S   0  0  0  0  0  0  0  0  0  0  0  0
   56.3768  -10.1880    9.9813 C   0  0  0  0  0  0  0  0  0  0  0  0
   56.3379   -8.8157    9.2848 C   0  0  0  0  0  0  0  0  0  0  0  0
   56.9592   -7.4164   11.2250 C   0  0  0  0  0  0  0  0  0  0  0  0
   58.0008   -8.0368   11.4131 O   0  0  0  0  0  0  0  0  0  0  0  0
   56.0863   -7.7125   10.2277 N   0  0  0  0  0  0  0  0  0  0  0  0
   55.5552   -6.9082    9.9168 H   0  0  0  0  0  0  0  0  0  0  0  0
   56.5072   -6.3774   11.9705 O   0  0  0  0  0  0  0  0  0  0  0  0
   54.2808   -6.2836   12.9885 C   0  0  0  0  0  0  0  0  0  0  0  0
   55.7493   -6.6934   13.1694 C   0  0  0  0  0  0  0  0  0  0  0  0
   56.3817   -6.0364   14.4082 C   0  0  0  0  0  0  0  0  0  0  0  0
   55.7776   -8.2259   13.3522 C   0  0  0  0  0  0  0  0  0  0  0  0
   57.6158   -8.5779    8.4392 C   0  0  0  0  0  0  0  0  0  0  0  0
   57.3403   -8.2564    6.9903 C   0  0  0  0  0  0  0  0  0  0  0  0
   56.5615   -7.1434    6.6384 C   0  0  0  0  0  0  0  0  0  0  0  0
   56.4231   -6.7761    5.3017 C   0  0  0  0  0  0  0  0  0  0  0  0
   57.0537   -7.5211    4.3082 C   0  0  0  0  0  0  0  0  0  0  0  0
   57.7811   -8.6616    4.6451 C   0  0  0  0  0  0  0  0  0  0  0  0
   57.9150   -9.0354    5.9812 C   0  0  0  0  0  0  0  0  0  0  0  0
   58.0208  -12.4715   11.5019 C   0  0  0  0  0  0  0  0  0  0  0  0
   57.4380  -12.7277   12.8793 C   0  0  0  0  0  0  0  0  0  0  0  0
   56.4417  -11.9215   13.4443 C   0  0  0  0  0  0  0  0  0  0  0  0
   56.1425  -12.0252   14.8050 C   0  0  0  0  0  0  0  0  0  0  0  0
   56.7668  -12.9916   15.5894 C   0  0  0  0  0  0  0  0  0  0  0  0
   57.6305  -13.9078   14.9978 C   0  0  0  0  0  0  0  0  0  0  0  0
   57.9582  -13.7821   13.6471 C   0  0  0  0  0  0  0  0  0  0  0  0
 22 23  1  0
 23 24  1  0
 23 25  1  0
 23 21  1  0
 21 17  1  0
 17 18  2  0
 17 19  1  0
 19 20  1  0
 16 26  1  0
 16 15  1  0
 16 19  1  0
 15 14  1  0
  1  2  1  0
  1 33  1  0
  1 14  1  0
 33 34  1  0
 34 35  1  0
 34 39  2  0
 35 36  2  0
 36 37  1  0
 37 38  2  0
 38 39  1  0
  2  3  2  0
  2  4  1  0
  4  6  1  0
  4  5  1  0
  6  7  1  0
  7  8  1  0
  8  9  1  0
  8 13  2  0
  9 10  2  0
 10 11  1  0
 11 12  2  0
 12 13  1  0
 26 27  1  0
 27 28  1  0
 27 32  2  0
 28 29  2  0
 29 30  1  0
 30 31  2  0
 31 32  1  0
M  END
> <minimizedAffinity>
-7.70412

> <CNNscore>
0.2979550660

> <CNNaffinity>
7.1423530579

> <CNN_VS>
2.1281003952

> <CNNaffinity_variance>
0.2416127920
$$$$




 39 41  0  0  0  0  0  0  0  0999 V2000
   58.0723  -10.8656    7.5872 C   0  0  0  0  0  0  0  0  0  0  0  0
   57.5534   -9.4170    7.5212 C   0  0  0  0  0  0  0  0  0  0  0  0
   57.0020   -8.8438    8.4568 O   0  0  0  0  0  0  0  0  0  0  0  0
   57.7042   -8.7781    6.3087 N   0  0  0  0  0  0  0  0  0  0  0  0
   57.8039   -9.3483    5.4751 H   0  0  0  0  0  0  0  0  0  0  0  0
   57.2072   -7.4143    6.1339 C   0  0  0  0  0  0  0  0  0  0  0  0
   57.6458   -6.7581    4.8111 C   0  0  0  0  0  0  0  0  0  0  0  0
   57.0121   -7.3908    3.6058 C   0  0  0  0  0  0  0  0  0  0  0  0
   55.6296   -7.3488    3.4132 C   0  0  0  0  0  0  0  0  0  0  0  0
   55.0731   -7.9529    2.2916 C   0  0  0  0  0  0  0  0  0  0  0  0
   55.9192   -8.5796    1.3926 C   0  0  0  0  0  0  0  0  0  0  0  0
   57.2596   -8.6392    1.5419 N   0  0  0  0  0  0  0  0  0  0  0  0
   57.7756   -8.0477    2.6435 C   0  0  0  0  0  0  0  0  0  0  0  0
   58.5086  -11.2817    9.3454 S   0  0  0  0  0  0  0  0  0  0  0  0
   56.8680  -11.7958   10.0389 C   0  0  0  0  0  0  0  0  0  0  0  0
   56.8708  -12.9425   11.0660 C   0  0  0  0  0  0  0  0  0  0  0  0
   58.6976  -14.5919   10.8402 C   0  0  0  0  0  0  0  0  0  0  0  0
   59.4370  -13.9629   11.5905 O   0  0  0  0  0  0  0  0  0  0  0  0
   57.4418  -14.1858   10.5205 N   0  0  0  0  0  0  0  0  0  0  0  0
   56.8238  -14.9558   10.2945 H   0  0  0  0  0  0  0  0  0  0  0  0
   59.0071  -15.7505   10.2067 O   0  0  0  0  0  0  0  0  0  0  0  0
   59.9723  -17.0118    8.3414 C   0  0  0  0  0  0  0  0  0  0  0  0
   59.4046  -15.6651    8.8116 C   0  0  0  0  0  0  0  0  0  0  0  0
   60.4003  -14.5131    8.5936 C   0  0  0  0  0  0  0  0  0  0  0  0
   58.1353  -15.3875    7.9781 C   0  0  0  0  0  0  0  0  0  0  0  0
   57.5642  -12.5140   12.3852 C   0  0  0  0  0  0  0  0  0  0  0  0
   56.6170  -12.3475   13.5487 C   0  0  0  0  0  0  0  0  0  0  0  0
   56.3895  -11.0830   14.1128 C   0  0  0  0  0  0  0  0  0  0  0  0
   55.4160  -10.9158   15.0951 C   0  0  0  0  0  0  0  0  0  0  0  0
   54.6698  -12.0099   15.5262 C   0  0  0  0  0  0  0  0  0  0  0  0
   54.9297  -13.2795   15.0126 C   0  0  0  0  0  0  0  0  0  0  0  0
   55.9083  -13.4507   14.0348 C   0  0  0  0  0  0  0  0  0  0  0  0
   59.2497  -11.0439    6.5997 C   0  0  0  0  0  0  0  0  0  0  0  0
   59.0060  -11.8840    5.3598 C   0  0  0  0  0  0  0  0  0  0  0  0
   58.6415  -11.3295    4.1263 C   0  0  0  0  0  0  0  0  0  0  0  0
   58.1597  -12.1494    3.1029 C   0  0  0  0  0  0  0  0  0  0  0  0
   58.1237  -13.5315    3.2689 C   0  0  0  0  0  0  0  0  0  0  0  0
   58.6443  -14.1011    4.4265 C   0  0  0  0  0  0  0  0  0  0  0  0
   59.0915  -13.2817    5.4639 C   0  0  0  0  0  0  0  0  0  0  0  0
 22 23  1  0
 23 24  1  0
 23 25  1  0
 23 21  1  0
 21 17  1  0
 17 18  2  0
 17 19  1  0
 19 20  1  0
 16 26  1  0
 16 15  1  0
 16 19  1  0
 15 14  1  0
  1  2  1  0
  1 33  1  0
  1 14  1  0
 33 34  1  0
 34 35  1  0
 34 39  2  0
 35 36  2  0
 36 37  1  0
 37 38  2  0
 38 39  1  0
  2  3  2  0
  2  4  1  0
  4  6  1  0
  4  5  1  0
  6  7  1  0
  7  8  1  0
  8  9  1  0
  8 13  2  0
  9 10  2  0
 10 11  1  0
 11 12  2  0
 12 13  1  0
 26 27  1  0
 27 28  1  0
 27 32  2  0
 28 29  2  0
 29 30  1  0
 30 31  2  0
 31 32  1  0
M  END
> <minimizedAffinity>
-8.47369

> <CNNscore>
0.2776412368

> <CNNaffinity>
5.8637394905

> <CNN_VS>
1.6280158758

> <CNNaffinity_variance>
2.8763790131
$$$$

