


 43 46  0  0  0  0  0  0  0  0999 V2000
   56.9022  -12.2369    8.7924 C   0  0  0  0  0  0  0  0  0  0  0  0
   57.4968  -11.6502   10.1159 C   0  0  0  0  0  0  0  0  0  0  0  0
   57.0318  -12.3737   12.4270 C   0  0  0  0  0  0  0  0  0  0  0  0
   58.2159  -12.2694   12.7690 O   0  0  0  0  0  0  0  0  0  0  0  0
   56.5814  -11.9889   11.2189 N   0  0  0  0  0  0  0  0  0  0  0  0
   55.6011  -12.2404   11.0020 H   0  0  0  0  0  0  0  0  0  0  0  0
   56.0571  -12.9233   13.1979 O   0  0  0  0  0  0  0  0  0  0  0  0
   56.9197  -13.0051   15.5097 C   0  0  0  0  0  0  0  0  0  0  0  0
   55.8351  -12.4720   14.5607 C   0  0  0  0  0  0  0  0  0  0  0  0
   54.4268  -12.8268   15.0735 C   0  0  0  0  0  0  0  0  0  0  0  0
   55.9452  -10.9363   14.5389 C   0  0  0  0  0  0  0  0  0  0  0  0
   57.7425  -10.1436    9.9523 C   0  0  0  0  0  0  0  0  0  0  0  0
   56.9424   -9.1301    9.1515 C   0  0  0  0  0  0  0  0  0  0  0  0
   55.8718   -8.5992    9.9290 C   0  0  0  0  0  0  0  0  0  0  0  0
   54.9707   -7.6754    9.4305 C   0  0  0  0  0  0  0  0  0  0  0  0
   55.2181   -7.1271    8.1911 C   0  0  0  0  0  0  0  0  0  0  0  0
   56.2973   -7.5703    7.4225 C   0  0  0  0  0  0  0  0  0  0  0  0
   56.5431   -6.9063    6.2293 C   0  0  0  0  0  0  0  0  0  0  0  0
   57.1466   -7.5544    5.1742 C   0  0  0  0  0  0  0  0  0  0  0  0
   57.8319   -8.7254    5.4440 C   0  0  0  0  0  0  0  0  0  0  0  0
   57.9090   -9.2109    6.7675 C   0  0  0  0  0  0  0  0  0  0  0  0
   57.0912   -8.6810    7.8027 C   0  0  0  0  0  0  0  0  0  0  0  0
   56.7286  -14.0539    8.5867 S   0  0  0  0  0  0  0  0  0  0  0  0
   58.4576  -14.6260    8.1664 C   0  0  0  0  0  0  0  0  0  0  0  0
   59.1203  -15.1763    9.4709 C   0  0  0  0  0  0  0  0  0  0  0  0
   60.3041  -15.0059    9.7597 O   0  0  0  0  0  0  0  0  0  0  0  0
   58.2716  -15.8052   10.3672 N   0  0  0  0  0  0  0  0  0  0  0  0
   57.2834  -15.8582   10.1843 H   0  0  0  0  0  0  0  0  0  0  0  0
   58.7644  -16.5008   11.5400 C   0  0  0  0  0  0  0  0  0  0  0  0
   58.2923  -15.8270   12.8245 C   0  0  0  0  0  0  0  0  0  0  0  0
   59.4319  -15.5316   13.7561 C   0  0  0  0  0  0  0  0  0  0  0  0
   59.3267  -15.7855   15.1247 C   0  0  0  0  0  0  0  0  0  0  0  0
   60.4012  -15.5034   15.9615 C   0  0  0  0  0  0  0  0  0  0  0  0
   61.5455  -14.9624   15.3997 C   0  0  0  0  0  0  0  0  0  0  0  0
   61.6785  -14.6849   14.0849 N   0  0  0  0  0  0  0  0  0  0  0  0
   60.6210  -14.9746   13.2950 C   0  0  0  0  0  0  0  0  0  0  0  0
   59.3217  -13.5806    7.4214 C   0  0  0  0  0  0  0  0  0  0  0  0
   59.1155  -13.4642    5.9245 C   0  0  0  0  0  0  0  0  0  0  0  0
   59.0653  -12.2141    5.2868 C   0  0  0  0  0  0  0  0  0  0  0  0
   58.8384  -12.1227    3.9108 C   0  0  0  0  0  0  0  0  0  0  0  0
   58.6767  -13.2778    3.1506 C   0  0  0  0  0  0  0  0  0  0  0  0
   58.7465  -14.5224    3.7639 C   0  0  0  0  0  0  0  0  0  0  0  0
   58.9744  -14.6115    5.1354 C   0  0  0  0  0  0  0  0  0  0  0  0
  8  9  1  0
  9 10  1  0
  9 11  1  0
  9  7  1  0
  7  3  1  0
  3  4  2  0
  3  5  1  0
  5  2  1  0
  5  6  1  0
  2  1  1  0
  2 12  1  0
  1 23  1  0
 23 24  1  0
 24 37  1  0
 24 25  1  0
 37 38  1  0
 38 39  1  0
 38 43  2  0
 39 40  2  0
 40 41  1  0
 41 42  2  0
 42 43  1  0
 25 26  2  0
 25 27  1  0
 27 29  1  0
 27 28  1  0
 29 30  1  0
 30 31  1  0
 31 32  1  0
 31 36  2  0
 32 33  2  0
 33 34  1  0
 34 35  2  0
 35 36  1  0
 12 13  1  0
 13 14  1  0
 13 22  2  0
 14 15  2  0
 15 16  1  0
 16 17  2  0
 17 18  1  0
 17 22  1  0
 18 19  2  0
 19 20  1  0
 20 21  2  0
 21 22  1  0
M  END
> <minimizedAffinity>
-9.04599

> <CNNscore>
0.3227918744

> <CNNaffinity>
7.2233657837

> <CNN_VS>
2.3316438198

> <CNNaffinity_variance>
1.2845855951
$$$$




 43 46  0  0  0  0  0  0  0  0999 V2000
   57.1921  -10.7054    8.9547 C   0  0  0  0  0  0  0  0  0  0  0  0
   57.6048   -9.2500    9.3559 C   0  0  0  0  0  0  0  0  0  0  0  0
   56.6018   -7.8947   11.1553 C   0  0  0  0  0  0  0  0  0  0  0  0
   57.7025   -7.5292   11.5850 O   0  0  0  0  0  0  0  0  0  0  0  0
   56.4578   -8.6180   10.0299 N   0  0  0  0  0  0  0  0  0  0  0  0
   55.5036   -8.9708    9.8394 H   0  0  0  0  0  0  0  0  0  0  0  0
   55.4181   -7.6555   11.7784 O   0  0  0  0  0  0  0  0  0  0  0  0
   53.5945   -7.6318   10.1144 C   0  0  0  0  0  0  0  0  0  0  0  0
   54.3952   -6.8338   11.1552 C   0  0  0  0  0  0  0  0  0  0  0  0
   54.9726   -5.5449   10.5408 C   0  0  0  0  0  0  0  0  0  0  0  0
   53.4236   -6.4167   12.2746 C   0  0  0  0  0  0  0  0  0  0  0  0
   58.0944   -8.4881    8.1163 C   0  0  0  0  0  0  0  0  0  0  0  0
   57.2981   -8.0227    6.9088 C   0  0  0  0  0  0  0  0  0  0  0  0
   56.3034   -7.0754    7.2907 C   0  0  0  0  0  0  0  0  0  0  0  0
   55.4201   -6.5117    6.3874 C   0  0  0  0  0  0  0  0  0  0  0  0
   55.6190   -6.7516    5.0455 C   0  0  0  0  0  0  0  0  0  0  0  0
   56.6269   -7.6216    4.6226 C   0  0  0  0  0  0  0  0  0  0  0  0
   56.8326   -7.7396    3.2555 C   0  0  0  0  0  0  0  0  0  0  0  0
   57.3392   -8.9021    2.7174 C   0  0  0  0  0  0  0  0  0  0  0  0
   57.9815   -9.7810    3.5710 C   0  0  0  0  0  0  0  0  0  0  0  0
   58.1144   -9.4667    4.9409 C   0  0  0  0  0  0  0  0  0  0  0  0
   57.3871   -8.3979    5.5325 C   0  0  0  0  0  0  0  0  0  0  0  0
   56.2942  -11.7712   10.1513 S   0  0  0  0  0  0  0  0  0  0  0  0
   57.6170  -12.9102   10.8194 C   0  0  0  0  0  0  0  0  0  0  0  0
   57.8489  -14.0529    9.7780 C   0  0  0  0  0  0  0  0  0  0  0  0
   57.0177  -14.3872    8.9347 O   0  0  0  0  0  0  0  0  0  0  0  0
   59.1071  -14.6324    9.7792 N   0  0  0  0  0  0  0  0  0  0  0  0
   59.8252  -14.2941   10.3979 H   0  0  0  0  0  0  0  0  0  0  0  0
   59.4193  -15.8033    8.9829 C   0  0  0  0  0  0  0  0  0  0  0  0
   60.4371  -15.4791    7.8941 C   0  0  0  0  0  0  0  0  0  0  0  0
   59.8102  -14.7611    6.7343 C   0  0  0  0  0  0  0  0  0  0  0  0
   59.5712  -13.3867    6.7829 C   0  0  0  0  0  0  0  0  0  0  0  0
   58.9913  -12.7499    5.6909 C   0  0  0  0  0  0  0  0  0  0  0  0
   58.6567  -13.5159    4.5867 C   0  0  0  0  0  0  0  0  0  0  0  0
   58.8541  -14.8494    4.5093 N   0  0  0  0  0  0  0  0  0  0  0  0
   59.4244  -15.4404    5.5825 C   0  0  0  0  0  0  0  0  0  0  0  0
   57.3651  -13.4202   12.2586 C   0  0  0  0  0  0  0  0  0  0  0  0
   56.6638  -12.4697   13.2081 C   0  0  0  0  0  0  0  0  0  0  0  0
   56.9146  -11.0883   13.1799 C   0  0  0  0  0  0  0  0  0  0  0  0
   56.2867  -10.2297   14.0864 C   0  0  0  0  0  0  0  0  0  0  0  0
   55.3870  -10.7358   15.0205 C   0  0  0  0  0  0  0  0  0  0  0  0
   55.1116  -12.0972   15.0454 C   0  0  0  0  0  0  0  0  0  0  0  0
   55.7373  -12.9514   14.1399 C   0  0  0  0  0  0  0  0  0  0  0  0
  8  9  1  0
  9 10  1  0
  9 11  1  0
  9  7  1  0
  7  3  1  0
  3  4  2  0
  3  5  1  0
  5  2  1  0
  5  6  1  0
  2  1  1  0
  2 12  1  0
  1 23  1  0
 23 24  1  0
 24 37  1  0
 24 25  1  0
 37 38  1  0
 38 39  1  0
 38 43  2  0
 39 40  2  0
 40 41  1  0
 41 42  2  0
 42 43  1  0
 25 26  2  0
 25 27  1  0
 27 29  1  0
 27 28  1  0
 29 30  1  0
 30 31  1  0
 31 32  1  0
 31 36  2  0
 32 33  2  0
 33 34  1  0
 34 35  2  0
 35 36  1  0
 12 13  1  0
 13 14  1  0
 13 22  2  0
 14 15  2  0
 15 16  1  0
 16 17  2  0
 17 18  1  0
 17 22  1  0
 18 19  2  0
 19 20  1  0
 20 21  2  0
 21 22  1  0
M  END
> <minimizedAffinity>
-8.31652

> <CNNscore>
0.2224535942

> <CNNaffinity>
7.2930054665

> <CNN_VS>
1.6223552227

> <CNNaffinity_variance>
0.3386321068
$$$$




 43 46  0  0  0  0  0  0  0  0999 V2000
   57.4850  -12.1238   10.3324 C   0  0  0  0  0  0  0  0  0  0  0  0
   58.3625  -13.3213    9.8371 C   0  0  0  0  0  0  0  0  0  0  0  0
   59.3763  -14.9410   11.3958 C   0  0  0  0  0  0  0  0  0  0  0  0
   58.8508  -15.9104   10.8358 O   0  0  0  0  0  0  0  0  0  0  0  0
   59.2931  -13.6855   10.9190 N   0  0  0  0  0  0  0  0  0  0  0  0
   59.6636  -12.9427   11.5373 H   0  0  0  0  0  0  0  0  0  0  0  0
   60.0563  -15.0104   12.5702 O   0  0  0  0  0  0  0  0  0  0  0  0
   60.3262  -15.0306   15.0242 C   0  0  0  0  0  0  0  0  0  0  0  0
   59.3550  -15.1255   13.8371 C   0  0  0  0  0  0  0  0  0  0  0  0
   58.5014  -16.4047   13.9205 C   0  0  0  0  0  0  0  0  0  0  0  0
   58.3956  -13.9239   13.9195 C   0  0  0  0  0  0  0  0  0  0  0  0
   59.0564  -12.9473    8.5197 C   0  0  0  0  0  0  0  0  0  0  0  0
   59.2485  -13.7922    7.2716 C   0  0  0  0  0  0  0  0  0  0  0  0
   59.7176  -15.0959    7.6078 C   0  0  0  0  0  0  0  0  0  0  0  0
   60.0014  -16.0583    6.6555 C   0  0  0  0  0  0  0  0  0  0  0  0
   59.6602  -15.7997    5.3460 C   0  0  0  0  0  0  0  0  0  0  0  0
   59.1337  -14.5578    4.9826 C   0  0  0  0  0  0  0  0  0  0  0  0
   58.7225  -14.4020    3.6667 C   0  0  0  0  0  0  0  0  0  0  0  0
   58.7382  -13.1624    3.0661 C   0  0  0  0  0  0  0  0  0  0  0  0
   58.8005  -12.0498    3.8858 C   0  0  0  0  0  0  0  0  0  0  0  0
   58.8301  -12.2056    5.2887 C   0  0  0  0  0  0  0  0  0  0  0  0
   59.0585  -13.4728    5.8914 C   0  0  0  0  0  0  0  0  0  0  0  0
   58.2843  -10.6073   10.9924 S   0  0  0  0  0  0  0  0  0  0  0  0
   57.2576   -9.2143   10.2861 C   0  0  0  0  0  0  0  0  0  0  0  0
   57.9469   -8.7164    8.9742 C   0  0  0  0  0  0  0  0  0  0  0  0
   59.1663   -8.6835    8.8137 O   0  0  0  0  0  0  0  0  0  0  0  0
   57.1006   -8.3906    7.9270 N   0  0  0  0  0  0  0  0  0  0  0  0
   56.1057   -8.5123    8.0169 H   0  0  0  0  0  0  0  0  0  0  0  0
   57.5824   -7.7683    6.7092 C   0  0  0  0  0  0  0  0  0  0  0  0
   57.6527   -8.7724    5.5630 C   0  0  0  0  0  0  0  0  0  0  0  0
   57.6723   -8.0955    4.2231 C   0  0  0  0  0  0  0  0  0  0  0  0
   57.6999   -6.7037    4.1204 C   0  0  0  0  0  0  0  0  0  0  0  0
   57.7202   -6.1065    2.8645 C   0  0  0  0  0  0  0  0  0  0  0  0
   57.6991   -6.9260    1.7483 C   0  0  0  0  0  0  0  0  0  0  0  0
   57.6529   -8.2742    1.8065 N   0  0  0  0  0  0  0  0  0  0  0  0
   57.6399   -8.8270    3.0396 C   0  0  0  0  0  0  0  0  0  0  0  0
   56.9297   -8.0805   11.2870 C   0  0  0  0  0  0  0  0  0  0  0  0
   55.4849   -7.6289   11.3597 C   0  0  0  0  0  0  0  0  0  0  0  0
   54.9648   -7.0199   12.5133 C   0  0  0  0  0  0  0  0  0  0  0  0
   53.6209   -6.6418   12.5773 C   0  0  0  0  0  0  0  0  0  0  0  0
   52.7832   -6.8501   11.4851 C   0  0  0  0  0  0  0  0  0  0  0  0
   53.2890   -7.4308   10.3288 C   0  0  0  0  0  0  0  0  0  0  0  0
   54.6294   -7.8054   10.2662 C   0  0  0  0  0  0  0  0  0  0  0  0
  8  9  1  0
  9 10  1  0
  9 11  1  0
  9  7  1  0
  7  3  1  0
  3  4  2  0
  3  5  1  0
  5  2  1  0
  5  6  1  0
  2  1  1  0
  2 12  1  0
  1 23  1  0
 23 24  1  0
 24 37  1  0
 24 25  1  0
 37 38  1  0
 38 39  1  0
 38 43  2  0
 39 40  2  0
 40 41  1  0
 41 42  2  0
 42 43  1  0
 25 26  2  0
 25 27  1  0
 27 29  1  0
 27 28  1  0
 29 30  1  0
 30 31  1  0
 31 32  1  0
 31 36  2  0
 32 33  2  0
 33 34  1  0
 34 35  2  0
 35 36  1  0
 12 13  1  0
 13 14  1  0
 13 22  2  0
 14 15  2  0
 15 16  1  0
 16 17  2  0
 17 18  1  0
 17 22  1  0
 18 19  2  0
 19 20  1  0
 20 21  2  0
 21 22  1  0
M  END
> <minimizedAffinity>
-9.60599

> <CNNscore>
0.1825626045

> <CNNaffinity>
6.3129158020

> <CNN_VS>
1.1525022984

> <CNNaffinity_variance>
1.9137992859
$$$$

