


 43 46  0  0  0  0  0  0  0  0999 V2000
   57.8432  -11.3241    9.7718 C   0  0  0  0  0  0  0  0  0  0  0  0
   58.4492  -12.6741    9.3585 C   0  0  0  0  0  0  0  0  0  0  0  0
   59.4939  -14.3851   10.8456 C   0  0  0  0  0  0  0  0  0  0  0  0
   60.6189  -14.2014   10.4116 O   0  0  0  0  0  0  0  0  0  0  0  0
   58.4006  -13.6491   10.4642 N   0  0  0  0  0  0  0  0  0  0  0  0
   57.5430  -13.8808   10.8887 H   0  0  0  0  0  0  0  0  0  0  0  0
   59.1182  -15.3384   11.7322 O   0  0  0  0  0  0  0  0  0  0  0  0
   58.3081  -13.9037   13.5512 C   0  0  0  0  0  0  0  0  0  0  0  0
   59.2093  -15.0731   13.1668 C   0  0  0  0  0  0  0  0  0  0  0  0
   60.6509  -14.8412   13.6328 C   0  0  0  0  0  0  0  0  0  0  0  0
   58.6587  -16.3216   13.8765 C   0  0  0  0  0  0  0  0  0  0  0  0
   57.7015  -13.2606    8.1524 C   0  0  0  0  0  0  0  0  0  0  0  0
   58.5335  -13.8453    7.0280 C   0  0  0  0  0  0  0  0  0  0  0  0
   59.1700  -15.0792    7.2726 C   0  0  0  0  0  0  0  0  0  0  0  0
   59.6756  -15.8409    6.2253 C   0  0  0  0  0  0  0  0  0  0  0  0
   59.4187  -15.4478    4.9200 C   0  0  0  0  0  0  0  0  0  0  0  0
   58.8298  -14.1996    4.6625 C   0  0  0  0  0  0  0  0  0  0  0  0
   58.5413  -13.8199    3.3551 C   0  0  0  0  0  0  0  0  0  0  0  0
   58.5695  -12.4846    2.9972 C   0  0  0  0  0  0  0  0  0  0  0  0
   58.4930  -11.5359    3.9995 C   0  0  0  0  0  0  0  0  0  0  0  0
   58.3293  -11.9552    5.3274 C   0  0  0  0  0  0  0  0  0  0  0  0
   58.5529  -13.3077    5.7075 C   0  0  0  0  0  0  0  0  0  0  0  0
   59.0364   -9.9506    9.8650 S   0  0  0  0  0  0  0  0  0  0  0  0
   57.8772   -8.5387   10.1330 C   0  0  0  0  0  0  0  0  0  0  0  0
   57.0573   -8.2720    8.8593 C   0  0  0  0  0  0  0  0  0  0  0  0
   55.8329   -8.3542    8.8131 O   0  0  0  0  0  0  0  0  0  0  0  0
   57.8074   -7.9131    7.7500 N   0  0  0  0  0  0  0  0  0  0  0  0
   58.7930   -7.7090    7.8611 H   0  0  0  0  0  0  0  0  0  0  0  0
   57.1446   -7.5286    6.5101 C   0  0  0  0  0  0  0  0  0  0  0  0
   57.6511   -8.3209    5.3052 C   0  0  0  0  0  0  0  0  0  0  0  0
   57.0665   -7.8263    4.0104 C   0  0  0  0  0  0  0  0  0  0  0  0
   57.7126   -8.0551    2.7923 C   0  0  0  0  0  0  0  0  0  0  0  0
   57.1417   -7.5950    1.6092 C   0  0  0  0  0  0  0  0  0  0  0  0
   55.9335   -6.9235    1.6813 C   0  0  0  0  0  0  0  0  0  0  0  0
   55.2746   -6.6895    2.8369 N   0  0  0  0  0  0  0  0  0  0  0  0
   55.8520   -7.1474    3.9702 C   0  0  0  0  0  0  0  0  0  0  0  0
   56.9074   -8.8166   11.2937 C   0  0  0  0  0  0  0  0  0  0  0  0
   56.4784   -7.6467   12.1580 C   0  0  0  0  0  0  0  0  0  0  0  0
   55.3779   -7.6928   13.0183 C   0  0  0  0  0  0  0  0  0  0  0  0
   55.0561   -6.5856   13.8082 C   0  0  0  0  0  0  0  0  0  0  0  0
   55.8161   -5.4240   13.7623 C   0  0  0  0  0  0  0  0  0  0  0  0
   56.9233   -5.3706   12.9310 C   0  0  0  0  0  0  0  0  0  0  0  0
   57.2573   -6.4734   12.1385 C   0  0  0  0  0  0  0  0  0  0  0  0
  8  9  1  0
  9 10  1  0
  9 11  1  0
  9  7  1  0
  7  3  1  0
  3  4  2  0
  3  5  1  0
  5  6  1  0
  2 12  1  0
  2  1  1  0
  2  5  1  0
  1 23  1  0
 24 25  1  0
 24 37  1  0
 24 23  1  0
 37 38  1  0
 38 39  1  0
 38 43  2  0
 39 40  2  0
 40 41  1  0
 41 42  2  0
 42 43  1  0
 25 26  2  0
 25 27  1  0
 27 29  1  0
 27 28  1  0
 29 30  1  0
 30 31  1  0
 31 32  1  0
 31 36  2  0
 32 33  2  0
 33 34  1  0
 34 35  2  0
 35 36  1  0
 12 13  1  0
 13 14  1  0
 13 22  2  0
 14 15  2  0
 15 16  1  0
 16 17  2  0
 17 18  1  0
 17 22  1  0
 18 19  2  0
 19 20  1  0
 20 21  2  0
 21 22  1  0
M  END
> <minimizedAffinity>
-8.93367

> <CNNscore>
0.2046836317

> <CNNaffinity>
6.7189826965

> <CNN_VS>
1.3752658367

> <CNNaffinity_variance>
0.9923473001
$$$$




 43 46  0  0  0  0  0  0  0  0999 V2000
   58.7246  -10.8071    9.9757 C   0  0  0  0  0  0  0  0  0  0  0  0
   58.9917  -12.2594    9.5513 C   0  0  0  0  0  0  0  0  0  0  0  0
   59.4705  -14.1515   11.1074 C   0  0  0  0  0  0  0  0  0  0  0  0
   60.6577  -14.1924   10.8309 O   0  0  0  0  0  0  0  0  0  0  0  0
   58.6042  -13.2112   10.6095 N   0  0  0  0  0  0  0  0  0  0  0  0
   57.6686  -13.2703   10.9102 H   0  0  0  0  0  0  0  0  0  0  0  0
   58.7991  -15.0159   11.9061 O   0  0  0  0  0  0  0  0  0  0  0  0
   57.9518  -13.8563   13.8963 C   0  0  0  0  0  0  0  0  0  0  0  0
   58.9193  -14.9062   13.3588 C   0  0  0  0  0  0  0  0  0  0  0  0
   60.3559  -14.6225   13.8115 C   0  0  0  0  0  0  0  0  0  0  0  0
   58.4816  -16.2630   13.9359 C   0  0  0  0  0  0  0  0  0  0  0  0
   58.2166  -12.6044    8.2716 C   0  0  0  0  0  0  0  0  0  0  0  0
   58.9162  -13.4656    7.2385 C   0  0  0  0  0  0  0  0  0  0  0  0
   59.5158  -14.6576    7.6935 C   0  0  0  0  0  0  0  0  0  0  0  0
   59.8897  -15.6544    6.7994 C   0  0  0  0  0  0  0  0  0  0  0  0
   59.5338  -15.5310    5.4643 C   0  0  0  0  0  0  0  0  0  0  0  0
   58.9811  -14.3308    4.9899 C   0  0  0  0  0  0  0  0  0  0  0  0
   58.5929  -14.2189    3.6581 C   0  0  0  0  0  0  0  0  0  0  0  0
   58.6490  -12.9942    3.0187 C   0  0  0  0  0  0  0  0  0  0  0  0
   58.7065  -11.8519    3.7949 C   0  0  0  0  0  0  0  0  0  0  0  0
   58.6447  -11.9693    5.1906 C   0  0  0  0  0  0  0  0  0  0  0  0
   58.8404  -13.2220    5.8357 C   0  0  0  0  0  0  0  0  0  0  0  0
   59.3165   -9.5489    8.7986 S   0  0  0  0  0  0  0  0  0  0  0  0
   57.7899   -8.5234    8.6335 C   0  0  0  0  0  0  0  0  0  0  0  0
   57.5812   -8.1092    7.1670 C   0  0  0  0  0  0  0  0  0  0  0  0
   57.8027   -8.8534    6.2156 O   0  0  0  0  0  0  0  0  0  0  0  0
   57.1047   -6.8194    6.9897 N   0  0  0  0  0  0  0  0  0  0  0  0
   56.7918   -6.2900    7.7942 H   0  0  0  0  0  0  0  0  0  0  0  0
   56.7620   -6.3414    5.6561 C   0  0  0  0  0  0  0  0  0  0  0  0
   55.3377   -6.7165    5.2476 C   0  0  0  0  0  0  0  0  0  0  0  0
   55.2684   -7.2473    3.8417 C   0  0  0  0  0  0  0  0  0  0  0  0
   54.1082   -7.1102    3.0745 C   0  0  0  0  0  0  0  0  0  0  0  0
   54.0777   -7.6015    1.7726 C   0  0  0  0  0  0  0  0  0  0  0  0
   55.2160   -8.2112    1.2744 C   0  0  0  0  0  0  0  0  0  0  0  0
   56.3581   -8.3561    1.9807 N   0  0  0  0  0  0  0  0  0  0  0  0
   56.3594   -7.8697    3.2420 C   0  0  0  0  0  0  0  0  0  0  0  0
   56.5430   -9.2856    9.1122 C   0  0  0  0  0  0  0  0  0  0  0  0
   55.5021   -8.5198    9.9059 C   0  0  0  0  0  0  0  0  0  0  0  0
   54.2137   -8.2610    9.4302 C   0  0  0  0  0  0  0  0  0  0  0  0
   53.2949   -7.5731   10.2277 C   0  0  0  0  0  0  0  0  0  0  0  0
   53.6334   -7.1369   11.5021 C   0  0  0  0  0  0  0  0  0  0  0  0
   54.8996   -7.4053   11.9966 C   0  0  0  0  0  0  0  0  0  0  0  0
   55.8265   -8.0959   11.2093 C   0  0  0  0  0  0  0  0  0  0  0  0
  8  9  1  0
  9 10  1  0
  9 11  1  0
  9  7  1  0
  7  3  1  0
  3  4  2  0
  3  5  1  0
  5  6  1  0
  2 12  1  0
  2  1  1  0
  2  5  1  0
  1 23  1  0
 24 25  1  0
 24 37  1  0
 24 23  1  0
 37 38  1  0
 38 39  1  0
 38 43  2  0
 39 40  2  0
 40 41  1  0
 41 42  2  0
 42 43  1  0
 25 26  2  0
 25 27  1  0
 27 29  1  0
 27 28  1  0
 29 30  1  0
 30 31  1  0
 31 32  1  0
 31 36  2  0
 32 33  2  0
 33 34  1  0
 34 35  2  0
 35 36  1  0
 12 13  1  0
 13 14  1  0
 13 22  2  0
 14 15  2  0
 15 16  1  0
 16 17  2  0
 17 18  1  0
 17 22  1  0
 18 19  2  0
 19 20  1  0
 20 21  2  0
 21 22  1  0
M  END
> <minimizedAffinity>
-9.69471

> <CNNscore>
0.2028449327

> <CNNaffinity>
6.2884678841

> <CNN_VS>
1.2755838633

> <CNNaffinity_variance>
2.0242078304
$$$$




 43 46  0  0  0  0  0  0  0  0999 V2000
   56.6749  -12.6945   10.5641 C   0  0  0  0  0  0  0  0  0  0  0  0
   58.0673  -13.3428   10.5274 C   0  0  0  0  0  0  0  0  0  0  0  0
   59.9379  -13.8854   12.0886 C   0  0  0  0  0  0  0  0  0  0  0  0
   60.6911  -14.2449   11.1992 O   0  0  0  0  0  0  0  0  0  0  0  0
   58.6898  -13.3613   11.8646 N   0  0  0  0  0  0  0  0  0  0  0  0
   58.1734  -13.0965   12.6598 H   0  0  0  0  0  0  0  0  0  0  0  0
   60.1703  -13.9621   13.4213 O   0  0  0  0  0  0  0  0  0  0  0  0
   59.1008  -16.1711   13.4276 C   0  0  0  0  0  0  0  0  0  0  0  0
   59.4215  -14.9176   14.2357 C   0  0  0  0  0  0  0  0  0  0  0  0
   58.1534  -14.3075   14.8431 C   0  0  0  0  0  0  0  0  0  0  0  0
   60.3579  -15.3431   15.3793 C   0  0  0  0  0  0  0  0  0  0  0  0
   57.9839  -14.7838   10.0038 C   0  0  0  0  0  0  0  0  0  0  0  0
   58.8432  -15.1466    8.8086 C   0  0  0  0  0  0  0  0  0  0  0  0
   59.5077  -16.3893    8.8471 C   0  0  0  0  0  0  0  0  0  0  0  0
   60.0444  -16.9473    7.6923 C   0  0  0  0  0  0  0  0  0  0  0  0
   59.7925  -16.3409    6.4703 C   0  0  0  0  0  0  0  0  0  0  0  0
   59.1753  -15.0808    6.4224 C   0  0  0  0  0  0  0  0  0  0  0  0
   58.8922  -14.4879    5.1955 C   0  0  0  0  0  0  0  0  0  0  0  0
   58.8909  -13.1107    5.0733 C   0  0  0  0  0  0  0  0  0  0  0  0
   58.7790  -12.3511    6.2226 C   0  0  0  0  0  0  0  0  0  0  0  0
   58.6108  -12.9967    7.4557 C   0  0  0  0  0  0  0  0  0  0  0  0
   58.8640  -14.3890    7.6009 C   0  0  0  0  0  0  0  0  0  0  0  0
   56.4986  -11.2102    9.5226 S   0  0  0  0  0  0  0  0  0  0  0  0
   57.9223  -10.2128   10.1450 C   0  0  0  0  0  0  0  0  0  0  0  0
   58.5619   -9.4189    8.9934 C   0  0  0  0  0  0  0  0  0  0  0  0
   59.6742   -8.9030    9.0631 O   0  0  0  0  0  0  0  0  0  0  0  0
   57.7886   -9.3349    7.8458 N   0  0  0  0  0  0  0  0  0  0  0  0
   56.9485   -9.8951    7.7703 H   0  0  0  0  0  0  0  0  0  0  0  0
   58.3236   -8.7035    6.6461 C   0  0  0  0  0  0  0  0  0  0  0  0
   57.4478   -8.9450    5.4169 C   0  0  0  0  0  0  0  0  0  0  0  0
   57.6426   -7.8910    4.3614 C   0  0  0  0  0  0  0  0  0  0  0  0
   57.7794   -8.2352    3.0137 C   0  0  0  0  0  0  0  0  0  0  0  0
   57.9471   -7.2371    2.0583 C   0  0  0  0  0  0  0  0  0  0  0  0
   57.9660   -5.9196    2.4820 C   0  0  0  0  0  0  0  0  0  0  0  0
   57.8295   -5.5460    3.7727 N   0  0  0  0  0  0  0  0  0  0  0  0
   57.6680   -6.5360    4.6790 C   0  0  0  0  0  0  0  0  0  0  0  0
   57.4846   -9.2259   11.2401 C   0  0  0  0  0  0  0  0  0  0  0  0
   56.1224   -8.5731   11.1065 C   0  0  0  0  0  0  0  0  0  0  0  0
   55.5372   -7.8075   12.1187 C   0  0  0  0  0  0  0  0  0  0  0  0
   54.2896   -7.2106   11.9167 C   0  0  0  0  0  0  0  0  0  0  0  0
   53.6079   -7.3577   10.7156 C   0  0  0  0  0  0  0  0  0  0  0  0
   54.1849   -8.0952    9.6944 C   0  0  0  0  0  0  0  0  0  0  0  0
   55.4343   -8.6943    9.8835 C   0  0  0  0  0  0  0  0  0  0  0  0
  8  9  1  0
  9 10  1  0
  9 11  1  0
  9  7  1  0
  7  3  1  0
  3  4  2  0
  3  5  1  0
  5  6  1  0
  2 12  1  0
  2  1  1  0
  2  5  1  0
  1 23  1  0
 24 25  1  0
 24 37  1  0
 24 23  1  0
 37 38  1  0
 38 39  1  0
 38 43  2  0
 39 40  2  0
 40 41  1  0
 41 42  2  0
 42 43  1  0
 25 26  2  0
 25 27  1  0
 27 29  1  0
 27 28  1  0
 29 30  1  0
 30 31  1  0
 31 32  1  0
 31 36  2  0
 32 33  2  0
 33 34  1  0
 34 35  2  0
 35 36  1  0
 12 13  1  0
 13 14  1  0
 13 22  2  0
 14 15  2  0
 15 16  1  0
 16 17  2  0
 17 18  1  0
 17 22  1  0
 18 19  2  0
 19 20  1  0
 20 21  2  0
 21 22  1  0
M  END
> <minimizedAffinity>
-8.80440

> <CNNscore>
0.1730021089

> <CNNaffinity>
6.3957114220

> <CNN_VS>
1.1064715385

> <CNNaffinity_variance>
1.6727652550
$$$$

