


 30 33  0  0  0  0  0  0  0  0999 V2000
   57.9927   -8.4811    4.8183 C   0  0  0  0  0  0  0  0  0  0  0  0
   58.1328   -8.0193    3.5082 C   0  0  0  0  0  0  0  0  0  0  0  0
   57.3808   -8.9811    2.8256 N   0  0  0  0  0  0  0  0  0  0  0  0
   56.1621   -8.5883    2.1426 C   0  0  0  0  0  0  0  0  0  0  0  0
   57.6723  -10.2144    3.3836 C   0  0  0  0  0  0  0  0  0  0  0  0
   57.4433  -11.5355    3.0037 C   0  0  0  0  0  0  0  0  0  0  0  0
   57.8894  -12.5491    3.8095 N   0  0  0  0  0  0  0  0  0  0  0  0
   58.4684  -12.2576    4.9981 C   0  0  0  0  0  0  0  0  0  0  0  0
   58.6230  -10.9586    5.4612 C   0  0  0  0  0  0  0  0  0  0  0  0
   58.2311   -9.9004    4.6258 C   0  0  0  0  0  0  0  0  0  0  0  0
   58.9525  -13.2535    5.8591 N   0  0  0  0  0  0  0  0  0  0  0  0
   59.2863  -14.5476    5.6551 C   0  0  0  0  0  0  0  0  0  0  0  0
   59.1610  -15.0659    4.4285 N   0  0  0  0  0  0  0  0  0  0  0  0
   59.7454  -15.2175    6.5795 O   0  0  0  0  0  0  0  0  0  0  0  0
   59.1427  -12.9826    6.8125 H   0  0  0  0  0  0  0  0  0  0  0  0
   59.0266  -14.4344    3.6475 H   0  0  0  0  0  0  0  0  0  0  0  0
   59.5549  -15.9614    4.2558 H   0  0  0  0  0  0  0  0  0  0  0  0
   56.1195   -7.1587    7.6771 C   0  0  0  0  0  0  0  0  0  0  0  0
   55.3872   -6.1512    7.0299 C   0  0  0  0  0  0  0  0  0  0  0  0
   55.2598   -6.1540    5.6553 C   0  0  0  0  0  0  0  0  0  0  0  0
   55.9425   -7.1091    4.9308 C   0  0  0  0  0  0  0  0  0  0  0  0
   56.8079   -7.9730    5.5991 C   0  0  0  0  0  0  0  0  0  0  0  0
   56.8646   -8.0553    6.9749 N   0  0  0  0  0  0  0  0  0  0  0  0
   55.8739   -7.2714    9.1881 C   0  0  0  0  0  0  0  0  0  0  0  0
   57.2790   -7.5169    9.7626 C   0  0  0  0  0  0  0  0  0  0  0  0
   57.0839   -7.3716   11.2434 C   0  0  0  0  0  0  0  0  0  0  0  0
   56.0927   -6.3535   11.4075 O   0  0  0  0  0  0  0  0  0  0  0  0
   55.4678   -6.1086   10.1096 C   0  0  0  0  0  0  0  0  0  0  0  0
   55.7525   -9.6557    9.5836 C   0  0  0  0  0  0  0  0  0  0  0  0
   55.0366   -8.4233    9.4786 O   0  0  0  0  0  0  0  0  0  0  0  0
 29 30  1  0
 30 24  1  0
 24 25  1  0
 24 28  1  0
 24 18  1  0
 25 26  1  0
 26 27  1  0
 27 28  1  0
 18 19  1  0
 18 23  2  0
 19 20  2  0
 20 21  1  0
 21 22  2  0
 22 23  1  0
 22  1  1  0
  1  2  2  0
  1 10  1  0
  2  3  1  0
  3  4  1  0
  3  5  1  0
  5  6  1  0
  5 10  2  0
  6  7  2  0
  7  8  1  0
  8 11  1  0
  8  9  2  0
 11 12  1  0
 11 15  1  0
 12 13  1  0
 12 14  2  0
 13 16  1  0
 13 17  1  0
  9 10  1  0
M  END
> <minimizedAffinity>
-6.85594

> <CNNscore>
0.7891931534

> <CNNaffinity>
6.5971398354

> <CNN_VS>
5.2064175606

> <CNNaffinity_variance>
0.1327582449
$$$$




 30 33  0  0  0  0  0  0  0  0999 V2000
   59.4100  -11.4508    6.2556 C   0  0  0  0  0  0  0  0  0  0  0  0
   59.5943  -10.9085    4.9823 C   0  0  0  0  0  0  0  0  0  0  0  0
   58.7275  -11.7185    4.2412 N   0  0  0  0  0  0  0  0  0  0  0  0
   57.5594  -11.1320    3.6107 C   0  0  0  0  0  0  0  0  0  0  0  0
   58.8737  -13.0172    4.6987 C   0  0  0  0  0  0  0  0  0  0  0  0
   58.4856  -14.2683    4.2231 C   0  0  0  0  0  0  0  0  0  0  0  0
   58.8134  -15.3871    4.9417 N   0  0  0  0  0  0  0  0  0  0  0  0
   59.4321  -15.2595    6.1392 C   0  0  0  0  0  0  0  0  0  0  0  0
   59.7444  -14.0279    6.6972 C   0  0  0  0  0  0  0  0  0  0  0  0
   59.4755  -12.8691    5.9516 C   0  0  0  0  0  0  0  0  0  0  0  0
   59.8001  -16.3696    6.9136 N   0  0  0  0  0  0  0  0  0  0  0  0
   60.0648  -16.5105    8.2319 C   0  0  0  0  0  0  0  0  0  0  0  0
   59.9890  -15.4389    9.0285 N   0  0  0  0  0  0  0  0  0  0  0  0
   60.3221  -17.6223    8.6922 O   0  0  0  0  0  0  0  0  0  0  0  0
   59.8453  -17.2617    6.4438 H   0  0  0  0  0  0  0  0  0  0  0  0
   59.5346  -14.6046    8.6758 H   0  0  0  0  0  0  0  0  0  0  0  0
   60.0288  -15.5817   10.0108 H   0  0  0  0  0  0  0  0  0  0  0  0
   57.6181  -10.4152    9.2800 C   0  0  0  0  0  0  0  0  0  0  0  0
   57.1942   -9.1400    8.8745 C   0  0  0  0  0  0  0  0  0  0  0  0
   57.2002   -8.7943    7.5380 C   0  0  0  0  0  0  0  0  0  0  0  0
   57.7174   -9.6912    6.6263 C   0  0  0  0  0  0  0  0  0  0  0  0
   58.3004  -10.8678    7.0927 C   0  0  0  0  0  0  0  0  0  0  0  0
   58.2067  -11.2771    8.4066 N   0  0  0  0  0  0  0  0  0  0  0  0
   57.2115  -10.8118   10.7060 C   0  0  0  0  0  0  0  0  0  0  0  0
   56.6694  -12.2412   10.5400 C   0  0  0  0  0  0  0  0  0  0  0  0
   56.5127  -12.7242   11.9521 C   0  0  0  0  0  0  0  0  0  0  0  0
   57.5887  -12.1345   12.6871 O   0  0  0  0  0  0  0  0  0  0  0  0
   58.1880  -11.0879   11.8620 C   0  0  0  0  0  0  0  0  0  0  0  0
   56.5249   -9.0701   12.2393 C   0  0  0  0  0  0  0  0  0  0  0  0
   56.1407   -9.9526   11.1829 O   0  0  0  0  0  0  0  0  0  0  0  0
 29 30  1  0
 30 24  1  0
 24 25  1  0
 24 28  1  0
 24 18  1  0
 25 26  1  0
 26 27  1  0
 27 28  1  0
 18 19  1  0
 18 23  2  0
 19 20  2  0
 20 21  1  0
 21 22  2  0
 22 23  1  0
 22  1  1  0
  1  2  2  0
  1 10  1  0
  2  3  1  0
  3  4  1  0
  3  5  1  0
  5  6  1  0
  5 10  2  0
  6  7  2  0
  7  8  1  0
  8 11  1  0
  8  9  2  0
 11 12  1  0
 11 15  1  0
 12 13  1  0
 12 14  2  0
 13 16  1  0
 13 17  1  0
  9 10  1  0
M  END
> <minimizedAffinity>
-7.16357

> <CNNscore>
0.6807988882

> <CNNaffinity>
7.1538643837

> <CNN_VS>
4.8703427315

> <CNNaffinity_variance>
0.0552273579
$$$$




 30 33  0  0  0  0  0  0  0  0999 V2000
   56.7436  -11.7335    9.1637 C   0  0  0  0  0  0  0  0  0  0  0  0
   56.6682  -12.6567   10.2084 C   0  0  0  0  0  0  0  0  0  0  0  0
   57.9845  -13.1301   10.2150 N   0  0  0  0  0  0  0  0  0  0  0  0
   58.8326  -12.8784   11.3653 C   0  0  0  0  0  0  0  0  0  0  0  0
   58.3792  -13.2887    8.8973 C   0  0  0  0  0  0  0  0  0  0  0  0
   59.4449  -13.9303    8.2689 C   0  0  0  0  0  0  0  0  0  0  0  0
   59.5302  -13.9009    6.9024 N   0  0  0  0  0  0  0  0  0  0  0  0
   58.6319  -13.1828    6.1881 C   0  0  0  0  0  0  0  0  0  0  0  0
   57.6163  -12.4456    6.7805 C   0  0  0  0  0  0  0  0  0  0  0  0
   57.4699  -12.5106    8.1753 C   0  0  0  0  0  0  0  0  0  0  0  0
   58.6646  -13.1243    4.7870 N   0  0  0  0  0  0  0  0  0  0  0  0
   58.8762  -14.0684    3.8427 C   0  0  0  0  0  0  0  0  0  0  0  0
   59.1105  -15.3287    4.2243 N   0  0  0  0  0  0  0  0  0  0  0  0
   58.8027  -13.7732    2.6504 O   0  0  0  0  0  0  0  0  0  0  0  0
   58.4522  -12.2348    4.3601 H   0  0  0  0  0  0  0  0  0  0  0  0
   58.9154  -15.5881    5.1842 H   0  0  0  0  0  0  0  0  0  0  0  0
   59.1065  -16.0374    3.5280 H   0  0  0  0  0  0  0  0  0  0  0  0
   56.5177   -8.4236   10.7205 C   0  0  0  0  0  0  0  0  0  0  0  0
   57.8303   -8.3028   11.2027 C   0  0  0  0  0  0  0  0  0  0  0  0
   58.8297   -9.1242   10.7206 C   0  0  0  0  0  0  0  0  0  0  0  0
   58.4921  -10.1218    9.8296 C   0  0  0  0  0  0  0  0  0  0  0  0
   57.1484  -10.3267    9.5226 C   0  0  0  0  0  0  0  0  0  0  0  0
   56.1533   -9.4524    9.9076 N   0  0  0  0  0  0  0  0  0  0  0  0
   55.5991   -7.2340   11.0325 C   0  0  0  0  0  0  0  0  0  0  0  0
   56.2365   -6.6071   12.2837 C   0  0  0  0  0  0  0  0  0  0  0  0
   55.5015   -5.3082   12.4396 C   0  0  0  0  0  0  0  0  0  0  0  0
   55.2312   -4.8518   11.1112 O   0  0  0  0  0  0  0  0  0  0  0  0
   55.4879   -5.9539   10.1867 C   0  0  0  0  0  0  0  0  0  0  0  0
   53.2862   -7.4492   10.3545 C   0  0  0  0  0  0  0  0  0  0  0  0
   54.2639   -7.7013   11.3658 O   0  0  0  0  0  0  0  0  0  0  0  0
 29 30  1  0
 30 24  1  0
 24 25  1  0
 24 28  1  0
 24 18  1  0
 25 26  1  0
 26 27  1  0
 27 28  1  0
 18 19  1  0
 18 23  2  0
 19 20  2  0
 20 21  1  0
 21 22  2  0
 22 23  1  0
 22  1  1  0
  1  2  2  0
  1 10  1  0
  2  3  1  0
  3  4  1  0
  3  5  1  0
  5  6  1  0
  5 10  2  0
  6  7  2  0
  7  8  1  0
  8 11  1  0
  8  9  2  0
 11 12  1  0
 11 15  1  0
 12 13  1  0
 12 14  2  0
 13 16  1  0
 13 17  1  0
  9 10  1  0
M  END
> <minimizedAffinity>
-7.65444

> <CNNscore>
0.5958994627

> <CNNaffinity>
6.3447394371

> <CNN_VS>
3.7808268070

> <CNNaffinity_variance>
0.0019531597
$$$$

